*Two stage differential op-amp
VDD vdd 0 1.8
VSS vss 0 -1.8
IREF g5 vss 10u

VIN1 g1 0 DC 0 AC 0.5
VIN2 g2 0 DC 0 AC -0.5

m1 d1 g1 s1 vdd pmos w=2u l=4u
m2 d2 g2 s1 vdd pmos w=2u l=4u
m3 d1 d1 vss vss nmos w=1u l=2u
m4 d2 d1 vss vss nmos w=1u l=2u

m5 s1 g5 vdd vdd pmos w=1u l=8u

m6 vo d2 vss vss nmos w=2u l=2u
m7 vo g5 vdd vdd pmos w=1u l=8u

m8 g5 g5 vdd vdd pmos w=1u l=8u

Cc d2 vo 2p

.model pmos pmos
.model nmos nmos

.op
*.ac dec 100 1 100Meg
.end
